Circuit: * C:\Users\vangi\Desktop\soil sensor\555_timer_in_LT_Spice\SMX_simulation_v3.asc

WARNING: Node N001 is floating.

Direct Newton iteration for .op point succeeded.

period=0.00135627 FROM 0.0105965 TO 0.0119528
frequency: 1/period=737.317


Date: Wed Mar 30 19:50:53 2022
Total elapsed time: 1.727 seconds.

tnom = 27
temp = 27
method = modified trap
totiter = 230511
traniter = 230503
tranpoints = 106039
accept = 104618
rejected = 1421
matrix size = 18
fillins = 4
solver = Normal
Matrix Compiler1: 788 bytes object code size  0.2/0.1/[0.1]
Matrix Compiler2: off  [0.1]/0.1/0.1

