Circuit: * C:\Users\vangi\Desktop\soil sensor\555_timer_in_LT_Spice\SMX_simulation.asc

R4: both pins shorted together -- ignoring.
WARNING: Node N001 is floating.

Direct Newton iteration for .op point succeeded.

Date: Wed Mar 30 13:51:41 2022
Total elapsed time: 0.844 seconds.

tnom = 27
temp = 27
method = modified trap
totiter = 114892
traniter = 114884
tranpoints = 52923
accept = 52240
rejected = 683
matrix size = 17
fillins = 4
solver = Normal
Matrix Compiler1: 774 bytes object code size  0.2/0.1/[0.1]
Matrix Compiler2: 1.07 KB object code size  0.1/0.1/[0.1]

