Circuit: * C:\Users\vangi\Desktop\soil sensor\555_timer_in_LT_Spice\SMX_simulation_v2.asc

R4: both pins shorted together -- ignoring.
WARNING: Node NC_03 is floating.
WARNING: Node N001 is floating.

WARNING: Less than two connections to node NC_02.  This node is used by R3.
WARNING: Less than two connections to node NC_03.  This node is used by R3.
Direct Newton iteration for .op point succeeded.

period=0.00135627 FROM 0.0105965 TO 0.0119528
frequency: 1/period=737.317


Date: Wed Mar 30 19:48:08 2022
Total elapsed time: 1.931 seconds.

tnom = 27
temp = 27
method = modified trap
totiter = 230511
traniter = 230503
tranpoints = 106039
accept = 104618
rejected = 1421
matrix size = 20
fillins = 4
solver = Normal
Matrix Compiler1: 852 bytes object code size  0.2/0.1/[0.1]
Matrix Compiler2: off  [0.1]/0.1/0.1

